
This full-field turbulence file was generated by TurbSim (v2.00.08a-bjj, 18-Jul-2017) on 20-Feb-2019 at 17:21:50.

 | w-comp |  Y  x  Z  | Grid Resolution (Y x Z) | Time-step | Hub Elev | Mean U |
             2     2    145.000    145.000          0.100      90.00     10.00

 Z Coordinates (m):
  -72.500  72.500
 -90.000

 Y Coordinates (m):
  -72.500  72.500

    0.000   1.697
   -1.281  -2.062
    2.558   0.530

    0.100   1.201
   -1.465  -0.695
    1.622   0.536

    0.200  -0.611
   -0.171  -0.942
    1.399   0.656

    0.300   0.256
    1.499  -0.049
    2.395   0.810

    0.400   0.702
    0.410   0.042
    2.336  -0.343

    0.500   0.868
    0.214   0.552
    2.680   0.307

    0.600   0.186
    0.343   0.562
    2.546   0.465

    0.700  -1.163
    0.058   1.488
    3.820  -0.573

    0.800  -0.180
    0.646   1.263
    3.923  -0.262

    0.900   0.538
    0.835   1.693
    3.139   0.327

    1.000   0.694
    0.684   1.638
    2.991  -0.239

    1.100   0.990
    1.017   2.155
    3.205  -0.423

    1.200   1.290
    2.122   2.383
    2.773  -1.626

    1.300   0.520
    2.920   2.593
    1.660  -1.652

    1.400   0.819
    2.736   2.693
    1.236  -0.893

    1.500  -0.118
    2.342   1.826
    1.388  -0.847

    1.600   0.287
    2.524   2.073
    0.391  -1.658

    1.700  -0.043
    2.706   1.952
    1.454  -1.477

    1.800   0.145
    1.530   2.416
    0.233  -2.083

    1.900   1.075
    0.317   1.759
    0.459  -2.697

    2.000   0.910
    0.993   1.482
    0.264  -1.290

    2.100   1.283
    1.196   1.829
    0.092  -1.016

    2.200   2.256
    0.859   0.258
   -0.132  -0.188

    2.300   2.613
    1.582   0.661
   -0.894   0.063

    2.400   2.697
    1.986   1.279
    0.195   2.258

    2.500   2.418
    1.711   1.123
   -0.317   2.576

    2.600   1.813
    0.946   1.147
    0.072   2.353

    2.700   0.341
    1.548   1.043
    0.052   2.504

    2.800   1.517
    1.275   1.506
   -1.586   1.449

    2.900   1.423
    0.816   1.153
   -0.597   0.624

    3.000   0.607
    1.036   0.011
    0.352   1.157

    3.100  -1.119
    0.658  -0.110
    0.295   0.930

    3.200  -0.834
    1.129  -0.645
    0.436   0.958

    3.300  -1.559
    0.841  -0.126
   -0.385   0.931

    3.400  -1.437
    1.830  -1.051
   -0.328  -0.367

    3.500  -0.024
    1.147  -0.876
   -0.002  -0.478

    3.600   0.723
    1.926  -0.978
   -0.448  -0.768

    3.700   0.655
    1.835   0.138
   -1.006   0.001

    3.800   0.769
    0.145   0.743
   -0.746   0.727

    3.900   1.262
    0.399   1.454
   -1.644   0.310

    4.000   1.027
    1.207   2.140
   -0.851   1.380

    4.100   1.188
    2.200   1.407
   -0.501   1.857

    4.200   0.651
    1.667   2.147
   -0.028   1.207

    4.300   1.391
    1.543   1.770
   -0.350   0.737

    4.400   1.901
    2.666   0.994
    0.285   1.208

    4.500   1.666
    2.709   2.000
    0.662   1.108

    4.600   2.699
    3.216   1.968
    1.136  -0.266

    4.700   3.354
    2.945   1.590
    1.393  -0.553

    4.800   2.292
    2.330   2.662
    1.210   1.342

    4.900   2.211
    2.807   3.099
   -0.191   1.054

    5.000   1.534
    2.632   3.554
    0.141   0.978

    5.100   1.609
    0.585   2.577
    0.871   0.828

    5.200   1.447
    1.602   2.691
    0.466   0.443

    5.300   2.182
    0.309   2.499
    1.791   1.333

    5.400   2.934
   -0.096   3.295
    2.589   1.327

    5.500   3.079
    0.698   2.861
    1.739   0.194

    5.600   3.408
    0.910   3.279
    1.189  -0.861

    5.700   4.118
    1.123   3.138
    1.018  -0.222

    5.800   4.163
    1.616   2.284
    0.773   1.118

    5.900   3.591
    1.481   1.373
    0.197   1.187

    6.000   3.493
    2.211   2.275
    0.204   1.404

    6.100   3.294
    3.089   2.223
   -0.554   1.871

    6.200   3.879
    4.376   2.407
   -0.458   2.264

    6.300   3.686
    4.557   2.963
   -0.860   2.710

    6.400   3.800
    3.486   3.463
   -0.097   2.491

    6.500   3.323
    3.108   2.436
   -0.937   2.069

    6.600   3.618
    2.470   1.996
   -0.439   1.600

    6.700   3.912
    3.013   2.666
    0.644   1.375

    6.800   3.658
    2.724   3.745
    0.436   2.347

    6.900   3.721
    3.354   3.760
   -0.261   2.285

    7.000   2.946
    2.890   3.074
   -0.862   3.024

    7.100   1.411
    3.582   2.911
   -0.355   2.746

    7.200   1.550
    3.600   1.849
   -1.058   3.078

    7.300   2.243
    2.787   1.489
    0.877   3.098

    7.400   2.565
    2.055   2.763
    1.503   2.682

    7.500   2.062
    2.181   3.359
    2.134   2.635

    7.600   1.009
    2.548   2.922
    2.806   2.558

    7.700   1.500
    2.983   2.450
    2.621   3.173

    7.800  -0.197
    1.858   1.830
    1.851   2.286

    7.900   0.592
    3.001   2.643
    1.646   1.942

    8.000   0.320
    2.438   2.911
    0.965   2.624

    8.100  -0.078
    1.320   1.128
    2.007   1.955

    8.200   0.865
    0.804   0.301
    3.120   2.114

    8.300   0.850
    1.767   0.513
    1.965   2.733

    8.400   0.342
    2.677   0.853
    1.181   2.770

    8.500   0.427
    2.693   1.729
    0.771   2.596

    8.600   0.336
    3.118   0.576
    1.133   2.064

    8.700   0.473
    2.440   0.950
    1.845   0.939

    8.800   1.074
    2.098   2.237
    1.813   0.446

    8.900   1.866
    0.896   1.548
    1.624   1.124

    9.000   0.514
    0.561   0.651
    2.028   2.169

    9.100   0.708
    0.680   1.185
    2.594   2.114

    9.200   0.910
    0.551   1.184
    4.113   1.878

    9.300  -0.116
    0.176   1.394
    4.056   0.549

    9.400   0.277
   -0.330   2.011
    3.095   1.146

    9.500   1.267
   -0.476   2.139
    2.673   1.380

    9.600   1.764
   -1.140   1.760
    2.570   0.806

    9.700   1.361
   -0.197   0.496
    1.349   2.258

    9.800   0.763
   -0.097   0.677
    0.870   1.685

    9.900   1.276
   -1.214  -1.540
    2.271   2.317
