
This full-field turbulence file was generated by TurbSim (v2.01.00-max, 20-02-2019) on 22-Feb-2019 at 10:22:04.

 | u-comp |  Y  x  Z  | Grid Resolution (Y x Z) | Time-step | Hub Elev | Mean U |
             3     3     72.500     72.500          0.100      90.00     10.00

 Z Coordinates (m):

 Y Coordinates (m):
  -72.500   0.000  72.500

    0.000  10.306
   11.549  13.085  12.404
   11.198  10.306  10.371
    7.976   7.586   8.309

    0.100  10.080
   11.929  12.393  13.099
   11.915  10.080   9.883
    8.285   7.569   9.187

    0.200  10.472
   10.423  12.309  12.942
   11.884  10.472  11.170
    8.126   8.239   9.451

    0.300  10.620
    9.864  12.610  12.351
   11.919  10.620  11.146
    8.282   7.398   8.478

    0.400  11.090
   10.507  12.053  12.035
   12.377  11.090  11.328
    8.328   7.980   8.605

    0.500  10.059
   10.161  11.337  11.256
   12.979  10.059  12.289
    7.792   7.675   9.397

    0.600   8.980
    9.559  11.574  11.228
   12.828   8.980  12.160
    8.677   7.313   9.632

    0.700   9.565
    8.844  10.972  11.586
   12.372   9.565  12.136
    7.698   7.614   9.210

    0.800   9.032
    8.588  11.727  11.531
   11.186   9.032  12.039
    7.758   7.005   9.318

    0.900  10.513
    9.845  11.738  12.197
   11.167  10.513  12.341
    8.611   7.495   8.318

    1.000  10.857
   10.248  12.585  11.207
   11.531  10.857  11.047
    8.028   7.168   7.677

    1.100  10.000
   10.962  12.053  11.517
   11.385  10.000  10.645
    8.461   7.019   8.676

    1.200  10.536
   10.655  12.353  11.980
   11.594  10.536  10.187
    9.415   7.355   9.009

    1.300  11.113
   10.539  12.255  11.315
   11.856  11.113   9.962
    8.914   7.079   9.042

    1.400  11.821
   10.500  11.660  10.607
   11.944  11.821   9.524
    8.448   6.291   8.931

    1.500  11.254
    9.727  11.367  10.874
   12.042  11.254   9.242
    8.085   7.541   8.966

    1.600  10.059
   10.699  10.072  10.553
   11.206  10.059  10.333
    7.199   7.458   8.738

    1.700   9.038
   11.644  10.234  10.789
   10.739   9.038  11.178
    8.858   7.738   8.027

    1.800   9.708
   11.277  10.327  10.887
   10.324   9.708  11.583
    8.195   7.316   7.749

    1.900   8.715
   11.890   9.672  11.015
   10.276   8.715  11.112
    8.666   5.050   8.198

    2.000   9.009
   11.341   9.395  10.960
   10.390   9.009  10.890
    7.978   5.228   9.456

    2.100   8.216
   11.102   8.467  11.561
   10.534   8.216  10.552
    7.106   5.448   9.715

    2.200   7.677
   10.238   8.734  11.316
   10.873   7.677  10.163
    6.987   6.026   9.706

    2.300   7.419
    9.555   9.233  10.964
   11.429   7.419  10.332
    7.277   5.773   9.285

    2.400   7.300
    9.093   9.957  10.262
   12.530   7.300  10.381
    7.172   6.084   9.039

    2.500   6.430
    9.581  10.620  10.484
   11.895   6.430  10.764
    7.408   6.174   8.677

    2.600   8.454
   11.055  10.145  10.194
   10.832   8.454  11.068
    7.680   6.562   8.142

    2.700   9.505
   10.687   9.025  10.805
    9.795   9.505  10.139
    7.076   5.154   7.488

    2.800   8.547
   10.226   8.188  11.368
   10.047   8.547  10.334
    7.069   4.357   6.768

    2.900   8.462
    9.683   7.883  11.041
    9.476   8.462  11.210
    8.131   3.015   7.249

    3.000   8.631
    9.671   8.459  11.861
    9.551   8.631  11.212
    7.599   3.401   7.198

    3.100   9.241
   10.716   8.664  11.266
    9.667   9.241  10.508
    7.357   3.061   7.657

    3.200   8.978
   10.640   8.824  11.027
    9.929   8.978  10.328
    6.022   3.479   7.734

    3.300   9.052
   10.871   8.828  12.515
    8.900   9.052  11.264
    5.909   3.931   7.281

    3.400   9.246
   10.393   8.827  11.897
    8.201   9.246  10.784
    5.486   4.094   7.350

    3.500   9.297
   10.565   9.452  12.171
    8.690   9.297  10.659
    5.790   3.409   7.110

    3.600   9.130
   10.784   9.681  11.991
    8.376   9.130  10.748
    5.902   4.290   6.482

    3.700   8.681
   10.757  10.192  12.455
    7.992   8.681  11.111
    5.064   6.160   5.872

    3.800   8.650
   10.405  11.152  12.285
    8.550   8.650  10.442
    6.390   5.978   5.928

    3.900   9.279
    9.686   9.732  12.226
    9.508   9.279  10.160
    5.523   5.630   6.525

    4.000   9.153
    9.256   9.793  12.342
   10.046   9.153   9.106
    5.568   6.365   7.550

    4.100   8.512
   10.082  10.607  10.997
    9.891   8.512   8.601
    5.503   7.221   7.761

    4.200   7.869
    9.939  10.549  11.847
    8.971   7.869   8.424
    5.656   6.823   6.437

    4.300   7.966
   10.281  10.195  12.464
    9.862   7.966   9.425
    5.685   7.334   5.487

    4.400   7.800
   10.482   9.947  11.952
   10.747   7.800  10.190
    5.808   8.521   6.432

    4.500   8.618
   10.606  10.347  12.649
   11.458   8.618   9.982
    5.453   8.129   5.313

    4.600   8.886
   11.464  10.031  13.176
   10.335   8.886   9.564
    5.183   7.032   5.738

    4.700   8.972
   11.067   9.406  13.738
   11.074   8.972  10.354
    4.914   7.094   5.726

    4.800   9.519
   10.948   8.838  13.674
   11.206   9.519  11.064
    5.373   6.952   5.117

    4.900   8.696
   10.965   9.989  13.230
   10.428   8.696  10.829
    4.719   7.218   5.138

    5.000   9.258
   10.473   9.046  12.783
   10.683   9.258  10.590
    4.488   8.074   4.699

    5.100   8.956
   10.235   9.488  12.041
   10.084   8.956  10.598
    4.200   7.588   4.807

    5.200   8.793
   10.540  10.259  12.215
   10.053   8.793   9.862
    4.417   6.842   5.212

    5.300   8.826
   10.233  10.276  12.004
    9.721   8.826  10.202
    5.470   7.227   4.798

    5.400   9.218
   10.125  10.009  11.833
   10.312   9.218   8.318
    5.362   6.639   4.683

    5.500   9.468
   10.471  11.417  11.724
    8.767   9.468   8.196
    4.742   7.190   5.842

    5.600   8.825
   10.680  11.773  12.115
    8.903   8.825   8.779
    6.016   7.605   4.845

    5.700   8.913
    9.604  12.208  11.859
    9.468   8.913   8.570
    6.489   7.190   5.651

    5.800   8.589
   10.099  12.464  13.061
    9.374   8.589   8.477
    6.779   7.907   5.565

    5.900   9.558
    9.951  12.497  12.620
    8.591   9.558   8.499
    7.690   8.097   5.691

    6.000  10.428
   10.304  12.513  11.635
    8.839  10.428   7.163
    8.619   7.067   7.087

    6.100  10.552
   10.787  13.627  11.900
    8.814  10.552   5.290
    7.354   7.021   7.572

    6.200  12.018
   11.046  12.712  12.531
    8.349  12.018   6.067
    5.478   7.211   7.089

    6.300  12.598
   11.473  11.593  12.858
    8.391  12.598   6.610
    5.705   8.246   7.705

    6.400  12.188
   11.801  11.907  11.949
    8.294  12.188   7.214
    6.687   8.404   7.923

    6.500  11.553
   11.056  13.029  11.552
    6.979  11.553   6.775
    6.560   8.637   7.771

    6.600  12.351
   10.862  13.584  11.592
    7.335  12.351   7.056
    7.295   7.563   6.774

    6.700  12.464
   10.745  12.841  11.109
    7.706  12.464   6.744
    8.280   8.055   7.786

    6.800  11.920
    9.806  12.277  10.033
    7.288  11.920   7.684
    8.688   8.004   7.316

    6.900  12.857
    9.809  12.275  10.045
    7.096  12.857   7.545
    9.153   6.546   6.943

    7.000  13.111
   11.391  12.495  10.508
    7.262  13.111   8.059
    8.821   7.110   6.090

    7.100  13.021
   10.767  12.282   9.895
    8.019  13.021   8.227
    9.145   6.816   7.048

    7.200  12.372
   11.279  11.731  10.508
    9.063  12.372   8.353
    8.810   6.676   7.220

    7.300  11.910
   11.933  11.384  10.471
    7.953  11.910   9.399
    8.938   6.593   6.623

    7.400  11.698
   13.162  12.463  10.828
    8.434  11.698   8.876
    9.026   6.824   6.412

    7.500  11.883
   12.568  12.248  10.185
    8.591  11.883   9.370
    8.355   7.443   5.651

    7.600  11.597
   12.304  11.762  10.259
    8.457  11.597   9.716
    7.868   7.759   6.358

    7.700  10.879
   12.144  12.739  11.259
    9.054  10.879   8.461
    7.123   8.362   5.837

    7.800  10.461
   12.201  12.308  11.280
    8.879  10.461   9.102
    7.221   7.415   5.231

    7.900  10.196
   12.338  12.375  11.167
    9.847  10.196   8.636
    7.144   7.890   4.321

    8.000   9.595
   11.586  12.105  10.359
    9.033   9.595   9.807
    7.066   8.798   4.081

    8.100   9.950
   12.160  10.891  10.539
    9.207   9.950  11.403
    6.336   9.314   4.050

    8.200  10.444
   11.449  10.849   9.992
    9.279  10.444  10.821
    6.337   8.902   4.058

    8.300  10.413
   12.325   9.938   9.258
    8.358  10.413  10.351
    6.179   7.996   5.490

    8.400  10.971
   12.690  10.294   8.682
    9.407  10.971  10.334
    6.419   7.883   6.631

    8.500  11.386
   13.722  11.201   8.941
    9.458  11.386  10.665
    5.952   7.419   6.794

    8.600  10.960
   13.618  12.307   8.556
    9.478  10.960  10.554
    6.021   7.835   7.010

    8.700  10.348
   14.296  12.292   9.033
   10.295  10.348  10.543
    6.548   8.550   6.859

    8.800  10.144
   14.125  12.369   9.288
   10.585  10.144  11.131
    6.938   8.766   7.110

    8.900  11.105
   12.948  11.724   9.457
   10.706  11.105  10.638
    7.121   9.034   8.043

    9.000   9.728
   13.282  11.112   9.239
   10.403   9.728  10.591
    6.996   8.791   8.175

    9.100   9.735
   13.079  11.720   7.632
    9.963   9.735  11.098
    7.796   9.040   7.678

    9.200  10.531
   13.888  12.059   7.910
    9.669  10.531  11.149
    8.907   9.586   7.240

    9.300  10.854
   14.146  12.915   6.963
   10.708  10.854  10.636
    9.156   9.305   7.433

    9.400  10.622
   13.590  12.323   8.501
   10.224  10.622  10.787
    8.230   9.019   7.854

    9.500   9.759
   13.311  13.255   9.877
   10.776   9.759  10.191
    8.337   9.152   7.180

    9.600   8.773
   13.056  13.519   9.656
    9.429   8.773  10.138
    8.561   8.782   7.383

    9.700   8.692
   13.781  12.979   8.834
    8.333   8.692  10.228
    8.796   8.963   7.097

    9.800   8.826
   13.945  12.739  10.404
    9.446   8.826  10.066
    7.773   8.480   8.306

    9.900   9.954
   11.755  12.779  11.452
   10.996   9.954  10.436
    7.712   8.243   8.393
