
This full-field turbulence file was generated by TurbSim (v2.00.08a-bjj, 18-Jul-2017) on 20-Feb-2019 at 17:21:50.

 | u-comp |  Y  x  Z  | Grid Resolution (Y x Z) | Time-step | Hub Elev | Mean U |
             2     2    145.000    145.000          0.100      90.00     10.00

 Z Coordinates (m):
  -72.500  72.500
 -90.000

 Y Coordinates (m):
  -72.500  72.500

    0.000  10.215
   12.366  13.165
    7.971   7.448

    0.100  10.170
   13.464  13.756
    8.377   7.633

    0.200  10.825
   13.441  13.902
    8.424   8.221

    0.300  10.887
   12.227  13.747
    8.419   7.330

    0.400  11.241
   12.481  14.203
    8.292   8.203

    0.500  10.123
   13.485  14.710
    7.603   7.933

    0.600   9.296
   13.860  14.367
    8.443   7.538

    0.700   9.932
   13.383  13.794
    7.343   7.916

    0.800   9.018
   13.548  12.562
    7.229   7.287

    0.900  10.318
   12.466  12.281
    8.205   7.688

    1.000  10.681
   11.841  12.696
    7.703   7.419

    1.100   9.739
   12.824  12.404
    8.240   7.559

    1.200  10.273
   13.067  12.612
    9.138   8.104

    1.300  11.106
   12.951  12.764
    8.755   7.642

    1.400  11.740
   12.839  12.740
    8.501   6.803

    1.500  11.316
   12.931  12.961
    8.060   8.093

    1.600  10.231
   12.599  12.119
    7.321   8.130

    1.700   9.190
   11.815  11.751
    8.737   8.242

    1.800   9.660
   11.802  11.152
    8.434   7.769

    1.900   8.509
   12.392  11.280
    8.999   5.740

    2.000   8.929
   13.659  11.360
    8.174   5.704

    2.100   8.110
   13.738  11.512
    7.291   5.952

    2.200   7.478
   13.713  12.220
    7.110   6.384

    2.300   7.094
   13.175  12.800
    7.362   6.181

    2.400   7.223
   12.934  13.778
    7.072   6.363

    2.500   6.398
   12.667  13.092
    7.217   6.359

    2.600   8.418
   12.471  11.871
    7.539   6.827

    2.700   9.730
   11.686  10.762
    6.894   5.236

    2.800   8.559
   10.895  11.077
    7.211   4.504

    2.900   8.469
   11.520  10.633
    8.265   3.149

    3.000   8.542
   11.471  10.866
    7.587   3.338

    3.100   9.460
   12.097  11.001
    7.140   3.036

    3.200   9.177
   11.815  11.366
    5.923   3.587

    3.300   9.407
   11.286  10.196
    6.030   4.038

    3.400   9.542
   11.124   9.619
    5.693   4.305

    3.500   9.313
   10.888  10.213
    5.852   3.671

    3.600   8.930
   10.286  10.068
    5.986   4.550

    3.700   8.541
    9.862   9.402
    5.245   6.256

    3.800   8.585
    9.990   9.872
    6.491   5.798

    3.900   9.153
   10.572  10.810
    5.858   5.459

    4.000   9.179
   11.618  11.192
    5.725   6.166

    4.100   8.449
   11.626  11.110
    5.576   6.918

    4.200   7.869
   10.392  10.102
    5.493   6.567

    4.300   7.994
    9.330  11.066
    5.645   7.151

    4.400   8.000
   10.369  11.956
    5.739   8.266

    4.500   8.698
    9.216  12.528
    5.221   8.038

    4.600   8.822
    9.618  11.502
    4.986   7.249

    4.700   8.654
    9.680  12.207
    4.754   7.350

    4.800   9.338
    9.092  12.150
    5.157   6.990

    4.900   8.491
    9.086  11.351
    4.764   7.335

    5.000   9.282
    8.674  11.519
    4.488   8.140

    5.100   9.139
    9.071  11.234
    4.026   7.625

    5.200   9.057
    9.388  11.176
    4.443   6.863

    5.300   8.922
    9.262  10.709
    5.382   7.091

    5.400   9.178
    9.165  11.229
    5.195   6.662

    5.500   9.462
   10.034   9.849
    4.533   7.309

    5.600   8.885
    9.081   9.847
    5.811   7.761

    5.700   9.032
    9.955  10.579
    6.468   7.222

    5.800   8.769
    9.788  10.463
    6.801   7.657

    5.900   9.651
    9.972   9.841
    7.843   7.785

    6.000  10.667
   11.168   9.854
    8.770   7.040

    6.100  10.760
   11.411   9.760
    7.592   6.879

    6.200  11.824
   10.841   9.417
    5.494   7.123

    6.300  12.529
   11.510   9.295
    5.886   8.051

    6.400  12.041
   11.808   9.216
    6.721   8.266

    6.500  11.442
   11.657   8.177
    6.742   8.409

    6.600  12.293
   10.817   8.539
    7.581   7.385

    6.700  12.282
   11.683   8.663
    8.534   7.852

    6.800  11.752
   11.167   8.074
    8.898   7.671

    6.900  12.685
   10.584   7.832
    9.487   6.229

    7.000  12.962
    9.808   8.050
    9.087   6.532

    7.100  13.104
   10.900   8.898
    9.084   6.307

    7.200  12.347
   11.080  10.145
    8.833   6.212

    7.300  11.907
   10.647   9.351
    8.817   6.195

    7.400  11.626
   10.697   9.854
    8.810   6.396

    7.500  11.835
    9.828   9.953
    8.149   7.009

    7.600  11.709
   10.364   9.802
    7.632   7.245

    7.700  10.863
    9.820  10.445
    6.815   7.879

    7.800  10.674
    9.257  10.268
    7.077   7.226

    7.900  10.226
    8.177  11.069
    7.055   7.960

    8.000   9.666
    7.954  10.131
    7.032   8.657

    8.100  10.133
    8.044  10.513
    6.171   9.306

    8.200  10.483
    8.128  10.754
    5.943   8.878

    8.300  10.394
    9.409   9.841
    5.890   7.715

    8.400  10.904
   10.328  10.649
    6.321   7.661

    8.500  11.394
   10.434  10.591
    6.002   7.248

    8.600  10.949
   10.737  10.928
    6.095   7.691

    8.700  10.366
   10.804  11.837
    6.600   8.472

    8.800   9.935
   10.978  11.884
    7.091   8.741

    8.900  10.888
   12.156  11.970
    7.303   8.985

    9.000   9.676
   12.321  12.005
    7.246   8.496

    9.100   9.756
   11.728  11.426
    8.040   8.768

    9.200  10.578
   11.086  11.252
    8.982   9.251

    9.300  10.963
   11.207  12.140
    9.168   9.204

    9.400  10.666
   11.683  11.607
    8.336   8.789

    9.500   9.700
   11.126  12.140
    8.439   8.969

    9.600   8.653
   11.413  10.829
    8.631   8.707

    9.700   8.570
   10.974  10.005
    9.188   8.655

    9.800   8.788
   12.222  11.230
    8.187   8.278

    9.900   9.878
   12.484  12.995
    7.778   7.818
