
This full-field turbulence file was generated by TurbSim (v2.01.00-max, 20-02-2019) on 21-Feb-2019 at 15:11:54.

 | w-comp |  Y  x  Z  | Grid Resolution (Y x Z) | Time-step | Hub Elev | Mean U |
             3     3     72.500     72.500          0.100      90.00     10.00

 Z Coordinates (m):

 Y Coordinates (m):
  -72.500   0.000  72.500

    0.000   1.054
    1.943   0.194  -0.912
    2.926   1.054   0.538
    2.526  -0.449  -1.494

    0.100   1.846
    0.924   0.657  -0.277
    3.392   1.846   0.690
    2.278   0.989  -0.113

    0.200   1.904
    0.151   2.077  -0.335
    4.404   1.904   0.604
    3.516   0.527  -0.862

    0.300   2.164
    0.736   2.788  -0.326
    3.948   2.164  -0.172
    3.373   0.328  -0.905

    0.400   1.778
    0.962   1.002  -0.354
    4.018   1.778   0.655
    2.078   1.247  -1.095

    0.500   1.324
    2.375   0.710  -0.433
    3.854   1.324  -0.340
    1.329   2.142   0.217

    0.600   2.435
    2.027   0.674  -0.232
    2.498   2.435  -0.533
    0.880   2.065   1.344

    0.700   1.452
    1.605   0.843   0.976
    2.593   1.452   0.557
    1.295   1.582   0.669

    0.800  -0.279
    1.430   0.258   1.100
    2.044  -0.279   0.383
    0.156   1.749   1.662

    0.900  -0.845
    0.503   0.133   1.201
    0.608  -0.845   1.448
    0.249   1.703   1.266

    1.000  -0.556
    1.974   0.468   0.831
    0.919  -0.556   0.414
    0.676   1.546   1.234

    1.100  -0.861
    1.803   1.512   0.365
    0.391  -0.861   0.549
    1.634   3.424   1.453

    1.200  -0.584
    1.391   1.884   1.685
    0.614  -0.584   1.267
    0.799   3.705   1.912

    1.300   0.472
    2.591   2.170   3.082
    0.044   0.472   1.975
    0.527   2.353   1.654

    1.400   0.248
    3.164   4.029   2.487
   -0.651   0.248   2.917
    1.615   2.749   1.462

    1.500   0.327
    3.235   4.387   2.602
   -0.653   0.327   3.421
    1.210   3.086   1.466

    1.600   1.512
    3.052   2.736   3.693
   -0.442   1.512   3.809
    1.260   3.126   0.918

    1.700   1.045
    3.267   1.887   4.326
    0.142   1.045   2.848
    0.594   2.112   0.577

    1.800  -0.202
    2.095   1.888   3.718
   -0.704  -0.202   1.989
    1.935   1.140   1.287

    1.900  -0.392
    1.338   2.669   4.324
   -0.116  -0.392   0.945
    2.830   2.213   1.078

    2.000   0.337
    2.202   2.648   3.567
   -0.630   0.337   1.445
    1.658   2.094   1.811

    2.100   0.524
    2.988   2.219   2.342
   -0.223   0.524   1.405
    1.410   2.568   0.738

    2.200   0.839
    2.672   2.819   2.660
    0.830   0.839   1.962
    0.737   2.364   0.288

    2.300   0.300
    3.196   1.669   3.961
    1.405   0.300   0.211
   -0.292   2.965   0.174

    2.400   2.144
    1.793   1.387   2.824
    1.149   2.144  -0.536
   -0.520   4.237   0.615

    2.500   2.186
    1.278   1.997   1.930
    0.629   2.186   0.327
   -1.675   3.890   1.017

    2.600   1.553
    1.221   1.481   1.783
   -0.477   1.553   0.406
   -0.929   4.234   2.665

    2.700   1.937
    1.644   1.477   1.690
   -1.089   1.937   0.524
   -1.249   3.086   2.339

    2.800   1.605
    1.754   3.097   1.880
   -0.179   1.605   0.713
   -0.574   2.493   1.557

    2.900   1.473
    1.833   3.261   2.699
    0.373   1.473   1.478
    0.361   1.574   2.123

    3.000  -0.031
    1.922   2.622   2.860
    0.354  -0.031   1.341
    0.268   0.711   2.357

    3.100   0.442
    1.598   1.829   2.064
    0.370   0.442   0.545
   -1.245   0.754   3.170

    3.200   0.576
    1.506   2.065   1.706
    0.572   0.576  -0.128
   -0.266   1.725   1.083

    3.300   0.963
    2.778   1.045   0.936
    0.081   0.963   0.124
    0.476   1.694   0.256

    3.400   0.669
    3.199   2.164   2.309
    0.022   0.669   1.953
    1.145   1.129  -0.399

    3.500   0.093
    1.103   2.402   1.897
    0.943   0.093   1.481
    0.445   1.381  -1.049

    3.600  -0.699
    1.748   2.931   2.339
    2.045  -0.699   1.054
    0.150   1.079  -0.089

    3.700  -0.337
    1.416   3.801   2.134
    1.161  -0.337   1.473
    0.284   0.680   1.144

    3.800   0.303
    0.697   2.899   2.330
    1.132   0.303   2.541
   -0.028  -0.556  -0.037

    3.900   0.364
   -0.357   3.732   2.950
    1.698   0.364   3.377
    0.741  -0.907   0.111

    4.000   1.214
   -0.740   3.827   1.290
    1.283   1.214   3.494
    0.272  -0.034   1.072

    4.100   0.738
   -1.343   3.253   1.404
    1.060   0.738   2.755
    0.017  -0.303   0.621

    4.200   0.647
   -0.228   2.808   2.304
    1.180   0.647   2.922
   -1.186  -0.616   0.724

    4.300   1.588
   -0.971   3.137   1.801
    1.322   1.588   3.830
   -0.634  -0.564  -0.193

    4.400   3.326
   -1.625   2.161   2.076
    0.583   3.326   3.167
   -0.206  -0.612   1.597

    4.500   2.236
   -1.079   1.974   1.132
    0.598   2.236   2.765
   -0.993   0.459   1.393

    4.600   2.242
   -1.331   1.123   2.175
    1.256   2.242   3.042
   -0.265   1.273   1.747

    4.700   1.089
   -0.583   0.107   3.269
    0.641   1.089   2.618
    0.253   1.267   1.995

    4.800   1.000
    0.188   0.612   3.882
    0.364   1.000   3.028
   -0.326   1.613   1.528

    4.900   0.752
   -0.918   0.482   3.926
    0.646   0.752   4.385
    0.129   1.888   1.820

    5.000   1.705
   -1.155   0.997   3.031
    0.481   1.705   5.362
    0.139   1.449   1.836

    5.100   2.910
   -1.174   0.581   2.844
    1.745   2.910   4.093
   -0.368   1.092   1.846

    5.200   3.322
   -1.149   0.934   2.533
    1.667   3.322   2.821
    0.651   0.590   2.235

    5.300   2.858
   -0.939   0.730   2.985
    0.514   2.858   3.587
    1.170   0.368   2.994

    5.400   2.646
   -0.933   0.553   3.235
    0.805   2.646   2.445
    1.398   1.494   2.712

    5.500   3.038
    0.116   1.650   3.552
    1.548   3.038   2.759
    0.254   1.034   1.440

    5.600   3.835
    1.800   1.649   2.571
    0.985   3.835   2.972
   -0.269   0.243   1.975

    5.700   4.960
    1.908   0.155   3.047
    2.028   4.960   2.259
    0.870   0.001   2.669

    5.800   5.441
    1.171   1.254   2.165
    1.020   5.441   2.906
    0.928  -0.666   2.584

    5.900   4.250
    0.960   1.581   0.861
    1.253   4.250   2.909
    1.285  -1.034   2.862

    6.000   5.191
    2.056   1.833   0.119
    0.486   5.191   2.275
    1.274   1.213   2.170

    6.100   4.768
    1.541   2.210   0.010
   -0.063   4.768   1.528
    1.139   0.861   1.318

    6.200   2.501
    1.738   1.997   1.374
    0.986   2.501   0.997
   -0.348   1.642   1.997

    6.300   3.191
    1.870   3.268   1.143
    0.377   3.191  -0.063
    0.422   1.325   2.548

    6.400   2.754
    2.212   3.790   1.846
    1.012   2.754   0.153
    0.146   1.506   2.048

    6.500   2.530
    0.957   3.944   2.152
    1.948   2.530   0.955
    0.359   0.446   1.678

    6.600   3.202
    1.300   3.340   2.745
    1.547   3.202   1.683
    1.596   0.335   2.155

    6.700   2.617
    2.339   3.087   2.007
    0.466   2.617   1.262
    2.445  -0.066   1.657

    6.800   2.460
    2.256   2.757   1.848
    0.323   2.460   1.310
    1.931  -0.023   1.041

    6.900   2.493
    1.895   2.608   1.728
   -0.019   2.493   1.847
    2.120   0.026   0.176

    7.000   1.884
    0.186   3.120   2.501
   -0.330   1.884   1.300
    1.029  -1.082   0.267

    7.100   2.001
   -0.219   1.998   2.343
    0.148   2.001  -0.424
   -0.790  -0.875   1.917

    7.200   1.376
    0.450   1.774   2.088
    0.533   1.376   0.353
   -0.891  -0.227   1.985

    7.300   2.223
    1.125   1.563   1.954
    2.422   2.223  -0.385
    0.011   0.268   2.335

    7.400   2.049
    1.076   1.868   2.068
    3.855   2.049  -0.709
   -0.033  -0.367   3.464

    7.500   1.720
    1.681   1.660   1.781
    4.038   1.720  -0.406
    0.672  -0.451   2.821

    7.600   1.805
    1.833   0.911   1.500
    3.483   1.805   0.297
    1.128  -1.095   1.970

    7.700   1.384
    2.816   0.772   0.249
    3.335   1.384   0.290
    0.434  -0.266   2.247

    7.800   1.317
    3.026   0.401   0.125
    2.705   1.317   0.000
    0.828   0.940   1.421

    7.900   0.803
    3.145   0.697   1.367
    2.326   0.803   1.107
    1.015   2.439   1.359

    8.000   0.824
    2.942   0.916   1.520
    1.714   0.824   0.688
    0.722   1.622   0.918

    8.100   1.225
    3.278  -0.116   1.450
    1.402   1.225   0.974
    0.838   1.899   0.656

    8.200   1.140
    3.443   0.546   0.878
    1.784   1.140   0.947
    0.314   1.944   0.683

    8.300   0.712
    3.025   1.141   0.690
    2.050   0.712   1.081
   -0.089   0.732   0.577

    8.400  -0.136
    2.855   0.789   0.991
    0.677  -0.136   0.937
    0.482   1.196  -0.101

    8.500   0.486
    3.168   0.675  -0.174
    0.774   0.486   0.378
    1.124   1.379  -0.487

    8.600   0.259
    2.371   1.032  -0.358
    1.884   0.259  -0.499
    1.659   1.040   0.558

    8.700   0.605
    2.286  -0.568  -0.098
    2.910   0.605   0.400
    2.221   0.388   1.434

    8.800  -0.417
    1.787  -1.043  -0.582
    2.471  -0.417  -0.580
    2.899   0.271   0.538

    8.900   0.320
    2.604  -1.261  -1.366
    1.531   0.320   0.237
    2.920   0.777   1.077

    9.000   0.145
    2.300  -0.859  -1.432
    3.038   0.145   0.477
    3.806   0.066   0.986

    9.100   0.864
    3.005  -0.744  -1.454
    2.581   0.864   0.929
    4.329   0.182   0.417

    9.200   1.241
    3.847  -1.065  -0.758
    3.434   1.241   1.076
    4.650  -0.502  -1.160

    9.300   0.666
    4.067   0.195   0.351
    2.572   0.666   1.676
    4.139  -0.167  -2.051

    9.400   0.591
    3.255  -0.711   0.062
    2.843   0.591   1.251
    3.849  -0.494  -2.165

    9.500   0.854
    3.248   0.314   1.615
    2.828   0.854   1.067
    3.400   0.075  -1.482

    9.600   0.917
    3.749   0.835   1.185
    2.711   0.917   1.063
    3.068   0.272  -1.546

    9.700   0.491
    2.780   1.515  -0.489
    3.381   0.491   1.187
    4.139   0.062  -1.693

    9.800   0.497
    2.734   0.844  -0.606
    4.363   0.497   1.610
    3.820   0.247  -1.310

    9.900   0.740
    1.871   0.517  -0.208
    3.673   0.740   1.121
    2.745  -0.706  -1.182
